CHEMBL1078774
                    3D
 Structure written by MMmdl.
 52 55  0  0  1  0            999 V2000
   12.8146    0.8080    0.0689 C   0  0  0  0  0  0
   11.9194   -0.1474   -0.7542 C   0  0  0  0  0  0
   10.4685    0.3660   -0.7781 C   0  0  0  0  0  0
   12.4753   -0.2208   -2.1781 C   0  0  0  0  0  0
   11.8886   -1.5790   -0.1851 C   0  0  0  0  0  0
   10.8516   -2.4541   -0.5469 C   0  0  0  0  0  0
   10.7947   -3.7435   -0.0550 C   0  0  0  0  0  0
   11.8117   -4.2036    0.7644 C   0  0  0  0  0  0
   12.8807   -3.3692    1.1329 C   0  0  0  0  0  0
   12.8820   -2.0552    0.6763 C   0  0  0  0  0  0
   14.0286   -3.8741    1.9864 C   0  0  1  0  0  0
   13.8076   -3.4485    3.3326 O   0  0  0  0  0  0
   14.8758   -3.7894    4.2165 C   0  0  0  0  0  0
   15.0715   -5.3181    4.2567 C   0  0  0  0  0  0
   15.2314   -5.9009    2.8436 C   0  0  0  0  0  0
   14.1181   -5.4079    1.8901 C   0  0  1  0  0  0
   12.7185   -6.0488    2.1265 C   0  0  2  0  0  0
   12.7612   -7.5479    2.0351 C   0  0  0  0  0  0
   13.2453   -8.1893    0.8854 C   0  0  0  0  0  0
   13.3212   -9.5776    0.8297 C   0  0  0  0  0  0
   12.9274  -10.3120    1.9477 C   0  0  0  0  0  0
   12.9755  -11.6650    2.0910 O   0  0  0  0  0  0
   12.4304   -9.6686    3.0444 C   0  0  0  0  0  0
   12.0577  -10.4439    4.0695 F   0  0  0  0  0  0
   12.3226   -8.3021    3.1210 C   0  0  0  0  0  0
   11.7434   -5.5361    1.1782 N   0  0  0  0  0  0
   12.5325    0.8833    1.1150 H   0  0  0  0  0  0
   12.8684    1.8169   -0.3389 H   0  0  0  0  0  0
   13.8143    0.4106    0.0939 H   0  0  0  0  0  0
   10.1312    0.3291    0.2282 H   0  0  0  0  0  0
    9.7854   -0.1994   -1.3984 H   0  0  0  0  0  0
   10.2936    1.3645   -1.1331 H   0  0  0  0  0  0
   13.4726   -0.6589   -2.2247 H   0  0  0  0  0  0
   12.5251    0.7329   -2.6948 H   0  0  0  0  0  0
   11.7885   -0.8617   -2.7053 H   0  0  0  0  0  0
   10.0577   -2.1640   -1.2118 H   0  0  0  0  0  0
    9.9636   -4.3765   -0.3287 H   0  0  0  0  0  0
   13.7110   -1.4397    0.9847 H   0  0  0  0  0  0
   14.9568   -3.4397    1.6082 H   0  0  0  0  0  0
   15.7982   -3.3159    3.8733 H   0  0  0  0  0  0
   14.6645   -3.3991    5.2118 H   0  0  0  0  0  0
   15.9448   -5.5693    4.8582 H   0  0  0  0  0  0
   14.2132   -5.7780    4.7478 H   0  0  0  0  0  0
   16.2000   -5.6073    2.4333 H   0  0  0  0  0  0
   15.2545   -6.9886    2.8964 H   0  0  0  0  0  0
   14.4360   -5.6292    0.8705 H   0  0  0  0  0  0
   12.3626   -5.7833    3.1259 H   0  0  0  0  0  0
   13.5633   -7.5865    0.0421 H   0  0  0  0  0  0
   13.6945  -10.0446   -0.0712 H   0  0  0  0  0  0
   13.1617  -12.2032    1.3104 H   0  0  0  0  0  0
   11.9305   -7.8479    4.0169 H   0  0  0  0  0  0
   10.8870   -6.0695    1.1050 H   0  0  0  0  0  0
  1  2  1  0  0  0
  1 27  1  0  0  0
  1 28  1  0  0  0
  1 29  1  0  0  0
  2  3  1  0  0  0
  2  4  1  0  0  0
  2  5  1  0  0  0
  3 30  1  0  0  0
  3 31  1  0  0  0
  3 32  1  0  0  0
  4 33  1  0  0  0
  4 34  1  0  0  0
  4 35  1  0  0  0
  5  6  2  0  0  0
  5 10  1  0  0  0
  6  7  1  0  0  0
  6 36  1  0  0  0
  7  8  2  0  0  0
  7 37  1  0  0  0
  8  9  1  0  0  0
  8 26  1  0  0  0
  9 10  2  0  0  0
  9 11  1  0  0  0
 10 38  1  0  0  0
 11 12  1  0  0  0
 11 16  1  0  0  0
 11 39  1  0  0  0
 12 13  1  0  0  0
 13 14  1  0  0  0
 13 40  1  0  0  0
 13 41  1  0  0  0
 14 15  1  0  0  0
 14 42  1  0  0  0
 14 43  1  0  0  0
 15 16  1  0  0  0
 15 44  1  0  0  0
 15 45  1  0  0  0
 16 17  1  0  0  0
 16 46  1  0  0  0
 17 18  1  0  0  0
 17 26  1  0  0  0
 17 47  1  0  0  0
 18 19  2  0  0  0
 18 25  1  0  0  0
 19 20  1  0  0  0
 19 48  1  0  0  0
 20 21  2  0  0  0
 20 49  1  0  0  0
 21 22  1  0  0  0
 21 23  1  0  0  0
 22 50  1  0  0  0
 23 24  1  0  0  0
 23 25  2  0  0  0
 25 51  1  0  0  0
 26 52  1  0  0  0
M  END
> <ID>
CHEMBL1078774

> <IC50[nM]>
17

$$$$
