@<TRIPOS>MOLECULE
ZBE
18 18 1 0 1
SMALL
USER_CHARGES
@<TRIPOS>ATOM
       1 C1           0.3260     0.2270    -1.4210 c3            1 ZBE       -0.076100
       2 C2          -1.0120    -0.3780    -1.0040 c3            1 ZBE       -0.075500
       3 C3          -1.4190     0.0670     0.3980 c3            1 ZBE       -0.075500
       4 C4          -0.3260    -0.2270     1.4210 c3            1 ZBE       -0.075500
       5 C5           1.0120     0.3780     1.0050 c3            1 ZBE       -0.075500
       6 C6           1.4190    -0.0670    -0.3980 c3            1 ZBE       -0.075500
       7 H1           0.2150     1.3130    -1.5340 hc            1 ZBE        0.037800
       8 H2           0.6200    -0.1680    -2.4000 hc            1 ZBE        0.037800
       9 H3          -1.7870    -0.0890    -1.7230 hc            1 ZBE        0.037800
      10 H4          -0.9420    -1.4720    -1.0330 hc            1 ZBE        0.037800
      11 H5          -1.6320     1.1440     0.3910 hc            1 ZBE        0.037800
      12 H6          -2.3450    -0.4390     0.6920 hc            1 ZBE        0.037800
      13 H7          -0.6210     0.1680     2.4000 hc            1 ZBE        0.037800
      14 H8          -0.2150    -1.3130     1.5340 hc            1 ZBE        0.037800
      15 H9           0.9420     1.4720     1.0330 hc            1 ZBE        0.037800
      16 H10          1.7880     0.0880     1.7230 hc            1 ZBE        0.037800
      17 H11          2.3460     0.4400    -0.6910 hc            1 ZBE        0.037800
      18 H12          1.6320    -1.1430    -0.3910 hc            1 ZBE        0.037800
@<TRIPOS>BOND
       1        1        6 1
       2        1        2 1
       3        2        3 1
       4        3        4 1
       5        4        5 1
       6        5        6 1
       7        1        7 1
       8        1        8 1
       9        2        9 1
      10        2       10 1
      11        3       11 1
      12        3       12 1
      13        4       13 1
      14        4       14 1
      15        5       15 1
      16        5       16 1
      17        6       17 1
      18        6       18 1
@<TRIPOS>SUBSTRUCTURE
       1 ZBE             1 RESIDUE    0 **** ROOT      0
