@<TRIPOS>MOLECULE
*****
    9     8     0     0     0
SMALL
NO_CHARGES

@<TRIPOS>ATOM
      1 C1          1.0616   -0.2681   -0.0006 C.3       1 <0>         0.0000
      2 O1          1.5170    1.3236   -1.7228 O.3       1 <0>         0.0000
      3 C2          1.9101    0.9126   -0.4220 C.3       1 <0>         0.0000
      4 H1          2.0787    2.0794   -1.9612 H         1 <0>         0.0000
      5 H2          1.3393   -0.6108    1.0001 H         1 <0>         0.0000
      6 H3         -0.0000   -0.0002   -0.0006 H         1 <0>         0.0000
      7 H4          1.1801   -1.0990   -0.7040 H         1 <0>         0.0000
      8 H5          2.9684    0.6361   -0.4446 H         1 <0>         0.0000
      9 H6          1.7730    1.7499    0.2687 H         1 <0>         0.0000
@<TRIPOS>BOND
     1    1    3 1
     3    3    2 1
     2    2    4 1
     4    1    5 1
     5    1    6 1
     6    1    7 1
     7    3    8 1
     8    3    9 1
