163
                    3D
 Structure written by MMmdl.
 38 40  0  0  1  0            999 V2000
   27.5787    1.5603  -11.1550 O   0  0  0  0  0  0
   27.1514    0.3087  -11.6602 C   0  0  2  0  0  0
   26.5211    0.3751  -13.0576 C   0  0  0  0  0  0
   25.0338    0.5863  -12.8456 C   0  0  0  0  0  0
   24.8061   -0.0850  -11.5041 C   0  0  0  0  0  0
   26.0164   -0.2498  -10.8166 C   0  0  0  0  0  0
   26.0198   -0.7868   -9.5184 C   0  0  0  0  0  0
   24.8022   -1.0984   -8.9082 C   0  0  0  0  0  0
   23.6047   -0.9287   -9.5876 C   0  0  0  0  0  0
   23.6011   -0.4346  -10.8994 C   0  0  0  0  0  0
   22.4804   -0.2663  -11.6771 O   0  0  0  0  0  0
   21.2449   -0.5687  -11.1803 C   0  0  0  0  0  0
   20.6785   -1.8246  -11.3976 C   0  0  0  0  0  0
   19.4221   -2.1093  -10.8761 C   0  0  0  0  0  0
   18.8542   -3.3170  -11.0822 F   0  0  0  0  0  0
   18.7363   -1.1524  -10.1388 C   0  0  0  0  0  0
   19.2883    0.1230   -9.9547 C   0  0  0  0  0  0
   18.5697    1.1665   -9.2401 C   0  0  0  0  0  0
   20.5476    0.3902  -10.4511 C   0  0  0  0  0  0
   27.5198   -1.0658   -8.5788 S   0  0  0  0  0  0
   27.2106   -1.9783   -7.4776 O   0  0  0  0  0  0
   28.5996   -1.4049   -9.5080 O   0  0  0  0  0  0
   27.9060    0.6119   -7.8645 C   0  0  0  0  0  0
   27.0587    1.3217  -13.8292 F   0  0  0  0  0  0
   26.6743   -0.8002  -13.6631 F   0  0  0  0  0  0
   18.0197    2.0048   -8.6626 N   0  0  0  0  0  0
   28.3401    1.8773  -11.6535 H   0  0  0  0  0  0
   27.9965   -0.3807  -11.7030 H   0  0  0  0  0  0
   24.4304    0.1815  -13.6650 H   0  0  0  0  0  0
   24.7949    1.6423  -12.7675 H   0  0  0  0  0  0
   24.7812   -1.4913   -7.9023 H   0  0  0  0  0  0
   22.6852   -1.2202   -9.0977 H   0  0  0  0  0  0
   21.2178   -2.5834  -11.9440 H   0  0  0  0  0  0
   17.7955   -1.4363   -9.7044 H   0  0  0  0  0  0
   21.0080    1.3516  -10.2626 H   0  0  0  0  0  0
   28.9206    0.5438   -7.4820 H   0  0  0  0  0  0
   27.1930    0.8396   -7.0713 H   0  0  0  0  0  0
   27.8723    1.3668   -8.6460 H   0  0  0  0  0  0
  1  2  1  0  0  0
  1 27  1  0  0  0
  2  3  1  0  0  0
  2  6  1  0  0  0
  2 28  1  0  0  0
  3  4  1  0  0  0
  3 24  1  0  0  0
  3 25  1  0  0  0
  4  5  1  0  0  0
  4 29  1  0  0  0
  4 30  1  0  0  0
  5  6  2  0  0  0
  5 10  1  0  0  0
  6  7  1  0  0  0
  7  8  2  0  0  0
  7 20  1  0  0  0
  8  9  1  0  0  0
  8 31  1  0  0  0
  9 10  2  0  0  0
  9 32  1  0  0  0
 10 11  1  0  0  0
 11 12  1  0  0  0
 12 13  2  0  0  0
 12 19  1  0  0  0
 13 14  1  0  0  0
 13 33  1  0  0  0
 14 15  1  0  0  0
 14 16  2  0  0  0
 16 17  1  0  0  0
 16 34  1  0  0  0
 17 18  1  0  0  0
 17 19  2  0  0  0
 18 26  3  0  0  0
 19 35  1  0  0  0
 20 21  2  0  0  0
 20 22  2  0  0  0
 20 23  1  0  0  0
 23 36  1  0  0  0
 23 37  1  0  0  0
 23 38  1  0  0  0
M  END
> <ID>
163

> <IC50[uM](SPA)>
0.0085

$$$$
