@<TRIPOS>MOLECULE
*****
   12    12     0     0     0
SMALL
NO_CHARGES

@<TRIPOS>ATOM
      1 C1          1.8851   -1.0363   -0.1124 C.ar      1 <0>         0.0000
      2 C2          2.9210   -1.6309    0.6081 C.ar      1 <0>         0.0000
      3 C3          2.8783   -1.6520    2.0022 C.ar      1 <0>         0.0000
      4 C4          1.7997   -1.0786    2.6757 C.ar      1 <0>         0.0000
      5 C5          0.7638   -0.4841    1.9551 C.ar      1 <0>         0.0000
      6 C6          0.8066   -0.4630    0.5610 C.ar      1 <0>         0.0000
      7 H1          1.9174   -1.0203   -1.1978 H         1 <0>         0.0000
      8 H2          3.7613   -2.0769    0.0841 H         1 <0>         0.0000
      9 H3          3.6848   -2.1150    2.5631 H         1 <0>         0.0000
     10 H4          1.7665   -1.0955    3.7614 H         1 <0>         0.0000
     11 H5         -0.0760   -0.0377    2.4791 H         1 <0>         0.0000
     12 H6          0.0004    0.0003   -0.0003 H         1 <0>         0.0000
@<TRIPOS>BOND
     1    1    6 ar
     2    1    2 ar
     3    2    3 ar
     4    3    4 ar
     5    4    5 ar
     6    5    6 ar
     7    1    7 1
     8    2    8 1
     9    3    9 1
    10    4   10 1
    11    5   11 1
    12    6   12 1
@<TRIPOS>MOLECULE
*****
   46    46     0     0     0
SMALL
NO_CHARGES

@<TRIPOS>ATOM
      1 C1         -0.7984    0.3971   -2.7362 C.3       1 <0>         0.0000
      2 C2          0.5701    0.4022   -2.0473 C.3       1 <0>         0.0000
      3 C3          1.1838    1.8039   -2.1218 C.3       1 <0>         0.0000
      4 C4          1.4983   -0.6078   -2.7299 C.3       1 <0>         0.0000
      5 P1          0.3632   -0.0593   -0.3229 P.3       1 <0>         0.0000
      6 N1          1.7378   -0.7874    0.0794 N.2       1 <0>         0.0000
      7 C5          1.8324   -1.2792    1.3584 C.2       1 <0>         0.0000
      8 O1          0.8957   -1.6893    2.0360 O.2       1 <0>         0.0000
      9 C6          3.2094   -1.3211    1.9243 C.ar      1 <0>         0.0000
     10 C7          3.4182   -1.8018    3.2170 C.ar      1 <0>         0.0000
     11 C8          4.7078   -1.8396    3.7472 C.ar      1 <0>         0.0000
     12 C9          5.7886   -1.3968    2.9847 C.ar      1 <0>         0.0000
     13 C10         5.5798   -0.9161    1.6920 C.ar      1 <0>         0.0000
     14 C11         4.2902   -0.8782    1.1619 C.ar      1 <0>         0.0000
     15 Cl1         6.9132   -0.3702    0.7508 Cl        1 <0>         0.0000
     16 Cl2         4.9653   -2.4333    5.3421 Cl        1 <0>         0.0000
     17 N2         -0.9505   -1.0734   -0.2664 N.pl3     1 <0>         0.0000
     18 C12        -0.7647   -2.4786   -0.6398 C.3       1 <0>         0.0000
     19 C13        -1.8294   -1.0130    0.9048 C.3       1 <0>         0.0000
     20 N3          0.1295    1.3392    0.5410 N.pl3     1 <0>         0.0000
     21 C14         0.3728    1.3190    1.9858 C.3       1 <0>         0.0000
     22 C15        -1.0641    2.1489    0.2827 C.3       1 <0>         0.0000
     23 H1         -1.2507   -0.5996   -2.6912 H         1 <0>         0.0000
     24 H2         -1.4874    1.1086   -2.2689 H         1 <0>         0.0000
     25 H3         -0.7002    0.6592   -3.7951 H         1 <0>         0.0000
     26 H4          2.1639    1.8240   -1.6330 H         1 <0>         0.0000
     27 H5          0.5503    2.5323   -1.6042 H         1 <0>         0.0000
     28 H6          1.3102    2.1339   -3.1585 H         1 <0>         0.0000
     29 H7          2.4823   -0.6164   -2.2486 H         1 <0>         0.0000
     30 H8          1.0880   -1.6224   -2.6909 H         1 <0>         0.0000
     31 H9          1.6555   -0.3407   -3.7806 H         1 <0>         0.0000
     32 H10         2.5729   -2.1456    3.8097 H         1 <0>         0.0000
     33 H11         6.7946   -1.4264    3.3984 H         1 <0>         0.0000
     34 H12         4.1243   -0.5029    0.1541 H         1 <0>         0.0000
     35 H13        -1.7150   -2.9911   -0.5467 H         1 <0>         0.0000
     36 H14        -0.0333   -2.9231    0.0252 H         1 <0>         0.0000
     37 H15        -0.4136   -2.5245   -1.6641 H         1 <0>         0.0000
     38 H16        -2.6278   -1.7346    0.7776 H         1 <0>         0.0000
     39 H17        -2.2388   -0.0124    0.9835 H         1 <0>         0.0000
     40 H18        -1.2496   -1.2489    1.7896 H         1 <0>         0.0000
     41 H19         0.1732    2.3063    2.3858 H         1 <0>         0.0000
     42 H20         1.4069    1.0462    2.1627 H         1 <0>         0.0000
     43 H21        -0.2877    0.5905    2.4417 H         1 <0>         0.0000
     44 H22        -1.0449    3.0144    0.9347 H         1 <0>         0.0000
     45 H23        -1.9443    1.5490    0.4837 H         1 <0>         0.0000
     46 H24        -1.0564    2.4625   -0.7549 H         1 <0>         0.0000
@<TRIPOS>BOND
     1    1    2 1
     2    2    3 1
     3    2    4 1
     4    2    5 1
     5    5    6 2
     6    6    7 1
     7    7    8 2
     8    7    9 1
     9    9   14 ar
    10    9   10 ar
    11   10   11 ar
    12   11   12 ar
    13   12   13 ar
    14   13   14 ar
    15   13   15 1
    16   11   16 1
    17    5   17 1
    18   17   18 1
    19   17   19 1
    20    5   20 1
    21   20   21 1
    22   20   22 1
    23    1   23 1
    24    1   24 1
    25    1   25 1
    26    3   26 1
    27    3   27 1
    28    3   28 1
    29    4   29 1
    30    4   30 1
    31    4   31 1
    32   10   32 1
    33   12   33 1
    34   14   34 1
    35   18   35 1
    36   18   36 1
    37   18   37 1
    38   19   38 1
    39   19   39 1
    40   19   40 1
    41   21   41 1
    42   21   42 1
    43   21   43 1
    44   22   44 1
    45   22   45 1
    46   22   46 1
@<TRIPOS>MOLECULE
*****
   34    36     0     0     0
SMALL
NO_CHARGES

@<TRIPOS>ATOM
      1 C1          0.3208    0.2453   -0.0767 C.3       1 <0>         0.0000
      2 C2         -0.9000   -0.5686    0.2286 C.ar      1 <0>         0.0000
      3 C3         -2.0397    0.1228    0.6332 C.ar      1 <0>         0.0000
      4 C4         -3.1800   -0.6015    0.9223 C.ar      1 <0>         0.0000
      5 N1         -3.0421   -2.0721    0.7597 N.ar      1 <0>         0.0000
      6 C5         -1.8491   -2.6335    0.3495 C.ar      1 <0>         0.0000
      7 N2         -0.7421   -1.9100    0.0706 N.ar      1 <0>         0.0000
      8 C6         -1.9205   -4.0023    0.2589 C.2       1 <0>         0.0000
      9 S1         -3.5049   -4.5279    0.6997 S.3       1 <0>         0.0000
     10 C7         -4.0213   -2.9161    0.9896 C.2       1 <0>         0.0000
     11 S2         -5.6608   -2.6162    1.5149 S.3       1 <0>         0.0000
     12 C8         -6.4947   -2.4194   -0.0821 C.3       1 <0>         0.0000
     13 C9         -0.9326   -4.9812   -0.1230 C.ar      1 <0>         0.0000
     14 C10        -1.1629   -5.8138   -1.2182 C.ar      1 <0>         0.0000
     15 C11        -0.2075   -6.7605   -1.5876 C.ar      1 <0>         0.0000
     16 C12         0.9782   -6.8747   -0.8618 C.ar      1 <0>         0.0000
     17 C13         1.2084   -6.0421    0.2334 C.ar      1 <0>         0.0000
     18 C14         0.2530   -5.0954    0.6028 C.ar      1 <0>         0.0000
     19 C15        -4.4027    0.1268    1.3558 C.3       1 <0>         0.0000
     20 H1          0.3270    0.5289   -1.1335 H         1 <0>         0.0000
     21 H2          0.3477    1.1539    0.5339 H         1 <0>         0.0000
     22 H3          1.2326   -0.3199    0.1437 H         1 <0>         0.0000
     23 H4         -2.0306    1.2052    0.7198 H         1 <0>         0.0000
     24 H5         -7.5539   -2.2216    0.0828 H         1 <0>         0.0000
     25 H6         -6.3829   -3.3337   -0.6650 H         1 <0>         0.0000
     26 H7         -6.0488   -1.5855   -0.6240 H         1 <0>         0.0000
     27 H8         -2.0821   -5.7371   -1.7942 H         1 <0>         0.0000
     28 H9         -0.3866   -7.4089   -2.4404 H         1 <0>         0.0000
     29 H10         1.7221   -7.6119   -1.1494 H         1 <0>         0.0000
     30 H11         2.1317   -6.1313    0.7984 H         1 <0>         0.0000
     31 H12         0.4473   -4.4538    1.4591 H         1 <0>         0.0000
     32 H13        -5.0192    0.3960    0.4879 H         1 <0>         0.0000
     33 H14        -5.0133   -0.4824    2.0370 H         1 <0>         0.0000
     34 H15        -4.1502    1.0485    1.8989 H         1 <0>         0.0000
@<TRIPOS>BOND
     1    1    2 1
     2    2    7 ar
     3    2    3 ar
     4    3    4 ar
     5    4    5 ar
     6    5   10 2
     7    5    6 ar
     8    6    7 ar
     9    6    8 2
    10    8    9 1
    11    9   10 1
    12   10   11 1
    13   11   12 1
    14    8   13 1
    15   13   18 ar
    16   13   14 ar
    17   14   15 ar
    18   15   16 ar
    19   16   17 ar
    20   17   18 ar
    21    4   19 1
    22    1   20 1
    23    1   21 1
    24    1   22 1
    25    3   23 1
    26   12   24 1
    27   12   25 1
    28   12   26 1
    29   14   27 1
    30   15   28 1
    31   16   29 1
    32   17   30 1
    33   18   31 1
    34   19   32 1
    35   19   33 1
    36   19   34 1
@<TRIPOS>MOLECULE
*****
   72    72     0     0     0
SMALL
NO_CHARGES

@<TRIPOS>ATOM
      1 C1         -2.3296   -3.8472   -0.5970 C.3       1 <0>         0.0000
      2 C2         -2.4342   -2.4153   -0.0947 C.3       1 <0>         0.0000
      3 O1         -1.5411   -1.6041   -0.8364 O.3       1 <0>         0.0000
      4 P1         -1.4899   -0.0315   -0.4638 P.3       1 <0>         0.0000
      5 N1         -1.1937    0.1741    1.0980 N.2       1 <0>         0.0000
      6 P2          0.3320   -0.0780    1.5221 P.3       1 <0>         0.0000
      7 N2          1.3697    0.6836    0.5678 N.2       1 <0>         0.0000
      8 P3          1.0996    0.4808   -0.9997 P.3       1 <0>         0.0000
      9 N3         -0.4325    0.7318   -1.3956 N.2       1 <0>         0.0000
     10 O2          1.5853   -0.9889   -1.4673 O.3       1 <0>         0.0000
     11 C3          1.4149   -1.3281   -2.8347 C.3       1 <0>         0.0000
     12 C4          1.9322   -2.7413   -3.0602 C.3       1 <0>         0.0000
     13 C5          1.7864   -3.1811   -4.4984 C.3       1 <0>         0.0000
     14 F1          2.4786   -2.3598   -5.3182 F         1 <0>         0.0000
     15 F2          2.2570   -4.4332   -4.6799 F         1 <0>         0.0000
     16 F3          0.4950   -3.1590   -4.8908 F         1 <0>         0.0000
     17 O3          2.0664    1.4603   -1.8488 O.3       1 <0>         0.0000
     18 C6          1.9405    2.8559   -1.6249 C.3       1 <0>         0.0000
     19 C7          2.9321    3.5896   -2.5160 C.3       1 <0>         0.0000
     20 C8          2.8616    5.0884   -2.3372 C.3       1 <0>         0.0000
     21 F4          3.1371    5.4271   -1.0585 F         1 <0>         0.0000
     22 F5          3.7527    5.7206   -3.1299 F         1 <0>         0.0000
     23 F6          1.6318    5.5613   -2.6308 F         1 <0>         0.0000
     24 O4          0.6460   -1.6634    1.5705 O.3       1 <0>         0.0000
     25 C9          1.9606   -2.0578    1.9315 C.3       1 <0>         0.0000
     26 C10         2.0412   -3.5773    1.9157 C.3       1 <0>         0.0000
     27 C11         3.4156   -4.0810    2.2907 C.3       1 <0>         0.0000
     28 F7          3.7487   -3.6696    3.5339 F         1 <0>         0.0000
     29 F8          3.4652   -5.4299    2.2782 F         1 <0>         0.0000
     30 F9          4.3571   -3.6202    1.4403 F         1 <0>         0.0000
     31 O5          0.5494    0.3730    3.0598 O.3       1 <0>         0.0000
     32 C12         0.2895    1.7297    3.3849 C.3       1 <0>         0.0000
     33 C13         0.5537    1.9403    4.8686 C.3       1 <0>         0.0000
     34 C14         0.2991    3.3665    5.2980 C.3       1 <0>         0.0000
     35 F10        -0.9859    3.7110    5.0616 F         1 <0>         0.0000
     36 F11         0.5317    3.5318    6.6174 F         1 <0>         0.0000
     37 F12         1.0862    4.2312    4.6234 F         1 <0>         0.0000
     38 O6         -2.9912    0.4624   -0.8066 O.3       1 <0>         0.0000
     39 C15        -3.2937    1.8314   -0.5874 C.3       1 <0>         0.0000
     40 C16        -4.7449    2.0830   -0.9701 C.3       1 <0>         0.0000
     41 C17        -5.1488    3.5245   -0.7652 C.3       1 <0>         0.0000
     42 F13        -4.3825    4.3436   -1.5185 F         1 <0>         0.0000
     43 F14        -6.4359    3.7293   -1.1166 F         1 <0>         0.0000
     44 F15        -5.0032    3.8975    0.5239 F         1 <0>         0.0000
     45 C18        -3.2556   -4.7815    0.1466 C.3       1 <0>         0.0000
     46 F16        -4.5410   -4.3918   -0.0003 F         1 <0>         0.0000
     47 F17        -3.1548   -6.0454   -0.3167 F         1 <0>         0.0000
     48 F18        -2.9805   -4.7977    1.4681 F         1 <0>         0.0000
     49 H1         -2.5555   -3.8765   -1.6696 H         1 <0>         0.0000
     50 H2         -1.2943   -4.1950   -0.4994 H         1 <0>         0.0000
     51 H3         -3.4489   -2.0268   -0.2279 H         1 <0>         0.0000
     52 H4         -2.1644   -2.3510    0.9642 H         1 <0>         0.0000
     53 H5          1.9693   -0.6075   -3.4452 H         1 <0>         0.0000
     54 H6          0.3503   -1.2579   -3.0821 H         1 <0>         0.0000
     55 H7          2.9853   -2.7974   -2.7597 H         1 <0>         0.0000
     56 H8          1.3960   -3.4363   -2.4030 H         1 <0>         0.0000
     57 H9          2.1409    3.0597   -0.5677 H         1 <0>         0.0000
     58 H10         0.9126    3.1555   -1.8554 H         1 <0>         0.0000
     59 H11         3.9478    3.2372   -2.3002 H         1 <0>         0.0000
     60 H12         2.7422    3.3313   -3.5646 H         1 <0>         0.0000
     61 H13         2.1813   -1.6656    2.9298 H         1 <0>         0.0000
     62 H14         2.6652   -1.6219    1.2152 H         1 <0>         0.0000
     63 H15         1.2938   -3.9902    2.6037 H         1 <0>         0.0000
     64 H16         1.7687   -3.9477    0.9202 H         1 <0>         0.0000
     65 H17        -0.7536    1.9544    3.1385 H         1 <0>         0.0000
     66 H18         0.9425    2.3658    2.7779 H         1 <0>         0.0000
     67 H19        -0.0761    1.2587    5.4525 H         1 <0>         0.0000
     68 H20         1.5892    1.6624    5.0989 H         1 <0>         0.0000
     69 H21        -2.6181    2.4406   -1.1972 H         1 <0>         0.0000
     70 H22        -3.1231    2.0621    0.4695 H         1 <0>         0.0000
     71 H23        -4.9013    1.7989   -2.0176 H         1 <0>         0.0000
     72 H24        -5.3974    1.4272   -0.3815 H         1 <0>         0.0000
@<TRIPOS>BOND
     1    1    2 1
     2    2    3 1
     3    3    4 1
     4    4    9 1
     5    4    5 2
     6    5    6 1
     7    6    7 2
     8    7    8 1
     9    8    9 2
    10    8   10 1
    11   10   11 1
    12   11   12 1
    13   12   13 1
    14   13   14 1
    15   13   15 1
    16   13   16 1
    17    8   17 1
    18   17   18 1
    19   18   19 1
    20   19   20 1
    21   20   21 1
    22   20   22 1
    23   20   23 1
    24    6   24 1
    25   24   25 1
    26   25   26 1
    27   26   27 1
    28   27   28 1
    29   27   29 1
    30   27   30 1
    31    6   31 1
    32   31   32 1
    33   32   33 1
    34   33   34 1
    35   34   35 1
    36   34   36 1
    37   34   37 1
    38    4   38 1
    39   38   39 1
    40   39   40 1
    41   40   41 1
    42   41   42 1
    43   41   43 1
    44   41   44 1
    45    1   45 1
    46   45   46 1
    47   45   47 1
    48   45   48 1
    49    1   49 1
    50    1   50 1
    51    2   51 1
    52    2   52 1
    53   11   53 1
    54   11   54 1
    55   12   55 1
    56   12   56 1
    57   18   57 1
    58   18   58 1
    59   19   59 1
    60   19   60 1
    61   25   61 1
    62   25   62 1
    63   26   63 1
    64   26   64 1
    65   32   65 1
    66   32   66 1
    67   33   67 1
    68   33   68 1
    69   39   69 1
    70   39   70 1
    71   40   71 1
    72   40   72 1
