default_name
  -OEChem-05102114353D

 17 16  0     1  0  0  0  0  0999 V2000
   25.8990   25.0810   24.2930 H   0  0  0  0  0  0  0  0  0  0  0  0
   25.9590   26.1440   24.0680 C   0  0  0  0  0  0  0  0  0  0  0  0
   25.4000   26.7140   24.8080 H   0  0  0  0  0  0  0  0  0  0  0  0
   25.5620   26.3390   23.0740 H   0  0  0  0  0  0  0  0  0  0  0  0
   27.4070   26.5760   24.1110 C   0  0  0  0  0  0  0  0  0  0  0  0
   28.2760   25.7470   24.3630 O   0  0  0  0  0  0  0  0  0  0  0  0
   27.6350   27.8640   23.8590 N   0  0  0  0  0  0  0  0  0  0  0  0
   26.8480   28.4800   23.7020 H   0  0  0  0  0  0  0  0  0  0  0  0
   28.9120   28.5790   23.9140 C   0  0  1  0  0  0  0  0  0  0  0  0
   29.4920   28.2330   24.7690 H   0  0  0  0  0  0  0  0  0  0  0  0
   29.7000   28.3090   22.6230 C   0  0  0  0  0  0  0  0  0  0  0  0
   29.1280   28.6630   21.7640 H   0  0  0  0  0  0  0  0  0  0  0  0
   30.6480   28.8480   22.6650 H   0  0  0  0  0  0  0  0  0  0  0  0
   29.8960   27.2420   22.5230 H   0  0  0  0  0  0  0  0  0  0  0  0
   28.6550   30.0840   24.1230 C   0  0  0  0  0  0  0  0  0  0  0  0
   27.5120   30.5100   23.8300 O   0  5  0  0  0  0  0  0  0  0  0  0
   29.5960   30.7660   24.5780 O   0  0  0  0  0  0  0  0  0  0  0  0
  5  6  2  0  0  0  0
  5  7  1  0  0  0  0
  2  3  1  0  0  0  0
  2  4  1  0  0  0  0
  2  5  1  0  0  0  0
  1  2  1  0  0  0  0
 15 16  1  0  0  0  0
 15 17  2  0  0  0  0
 11 12  1  0  0  0  0
 11 13  1  0  0  0  0
 11 14  1  0  0  0  0
  9 10  1  0  0  0  0
  9 11  1  0  0  0  0
  9 15  1  0  0  0  0
  7  8  1  0  0  0  0
  7  9  1  0  0  0  0
M  CHG  1  16  -1
M  END
> <atom.dprop.PartialCharge>
0.112300 -0.366200 0.112300 0.112300 0.597200 -0.567900 -0.567900 -0.567900 -0.567900 -0.567900 -0.567900 -0.567900 -0.567900 -0.567900 -0.567900 -0.567900 -0.567900

$$$$
