default_name
  -OEChem-05102114353D

 27 26  0     1  0  0  0  0  0999 V2000
   25.8580   25.3060   24.6910 H   0  0  0  0  0  0  0  0  0  0  0  0
   25.9550   26.2270   24.1190 C   0  0  0  0  0  0  0  0  0  0  0  0
   25.2200   26.9540   24.4580 H   0  0  0  0  0  0  0  0  0  0  0  0
   25.8140   26.0180   23.0600 H   0  0  0  0  0  0  0  0  0  0  0  0
   27.3400   26.7880   24.3270 C   0  0  0  0  0  0  0  0  0  0  0  0
   28.1320   26.2120   25.0610 O   0  0  0  0  0  0  0  0  0  0  0  0
   27.6120   27.9240   23.6950 N   0  0  0  0  0  0  0  0  0  0  0  0
   26.8820   28.3670   23.1590 H   0  0  0  0  0  0  0  0  0  0  0  0
   28.9030   28.6210   23.7180 C   0  0  1  0  0  0  0  0  0  0  0  0
   29.4710   28.2800   24.5840 H   0  0  0  0  0  0  0  0  0  0  0  0
   29.7050   28.2410   22.4570 C   0  0  0  0  0  0  0  0  0  0  0  0
   29.8200   27.1560   22.4460 H   0  0  0  0  0  0  0  0  0  0  0  0
   29.1430   28.5370   21.5700 H   0  0  0  0  0  0  0  0  0  0  0  0
   31.1030   28.8800   22.4050 C   0  0  0  0  0  0  0  0  0  0  0  0
   31.0010   29.9450   22.1830 H   0  0  0  0  0  0  0  0  0  0  0  0
   31.5610   28.7840   23.3930 H   0  0  0  0  0  0  0  0  0  0  0  0
   32.0260   28.2440   21.3550 C   0  0  0  0  0  0  0  0  0  0  0  0
   31.5120   27.7970   20.3050 O   0  5  0  0  0  0  0  0  0  0  0  0
   33.2500   28.2380   21.6140 O   0  0  0  0  0  0  0  0  0  0  0  0
   28.7000   30.1430   23.8690 C   0  0  0  0  0  0  0  0  0  0  0  0
   27.6320   30.6690   23.5490 O   0  0  0  0  0  0  0  0  0  0  0  0
   29.7150   30.8520   24.3800 N   0  0  0  0  0  0  0  0  0  0  0  0
   30.5770   30.3620   24.5680 H   0  0  0  0  0  0  0  0  0  0  0  0
   29.6900   32.3000   24.5700 C   0  0  0  0  0  0  0  0  0  0  0  0
   28.7900   32.5840   25.1180 H   0  0  0  0  0  0  0  0  0  0  0  0
   30.5720   32.6210   25.1260 H   0  0  0  0  0  0  0  0  0  0  0  0
   29.6770   32.7930   23.5960 H   0  0  0  0  0  0  0  0  0  0  0  0
  5  6  2  0  0  0  0
  5  7  1  0  0  0  0
  2  3  1  0  0  0  0
  2  4  1  0  0  0  0
  2  5  1  0  0  0  0
  1  2  1  0  0  0  0
 20 21  2  0  0  0  0
 20 22  1  0  0  0  0
 17 18  1  0  0  0  0
 17 19  2  0  0  0  0
 14 15  1  0  0  0  0
 14 16  1  0  0  0  0
 14 17  1  0  0  0  0
 11 12  1  0  0  0  0
 11 13  1  0  0  0  0
 11 14  1  0  0  0  0
  9 10  1  0  0  0  0
  9 11  1  0  0  0  0
  9 20  1  0  0  0  0
  7  8  1  0  0  0  0
  7  9  1  0  0  0  0
 24 25  1  0  0  0  0
 24 26  1  0  0  0  0
 24 27  1  0  0  0  0
 22 23  1  0  0  0  0
 22 24  1  0  0  0  0
M  CHG  1  18  -1
M  END
> <atom.dprop.PartialCharge>
0.112300 -0.366200 0.112300 0.112300 0.597200 -0.567900 -0.516300 0.293600 0.039700 0.110500 0.056000 -0.017300 -0.017300 0.013600 -0.042500 -0.042500 0.805400 -0.818800 -0.818800 0.536600 -0.581900 -0.415700 0.271900 -0.149000 0.097600 0.097600 0.097600

$$$$
