default_name
  -OEChem-05102114353D

 44 43  0     1  0  0  0  0  0999 V2000
   28.5730   24.0320   26.0990 H   0  0  0  0  0  0  0  0  0  0  0  0
   28.4030   25.0750   26.3640 C   0  0  0  0  0  0  0  0  0  0  0  0
   29.0470   25.3510   27.1960 H   0  0  0  0  0  0  0  0  0  0  0  0
   27.3600   25.2150   26.6430 H   0  0  0  0  0  0  0  0  0  0  0  0
   28.7260   25.9450   25.1730 C   0  0  0  0  0  0  0  0  0  0  0  0
   29.1290   25.4420   24.1320 O   0  0  0  0  0  0  0  0  0  0  0  0
   28.5330   27.2520   25.3190 N   0  0  0  0  0  0  0  0  0  0  0  0
   28.1950   27.6010   26.2050 H   0  0  0  0  0  0  0  0  0  0  0  0
   28.7880   28.2550   24.2840 C   0  0  1  0  0  0  0  0  0  0  0  0
   29.7260   28.0000   23.7880 H   0  0  0  0  0  0  0  0  0  0  0  0
   27.6650   28.2120   23.2330 C   0  0  0  0  0  0  0  0  0  0  0  0
   27.5420   27.1830   22.8930 H   0  0  0  0  0  0  0  0  0  0  0  0
   27.9970   28.7840   22.3670 H   0  0  0  0  0  0  0  0  0  0  0  0
   26.0350   28.8640   23.7030 S   0  0  0  0  0  0  0  0  0  0  0  0
   28.9480   29.6580   24.8990 C   0  0  0  0  0  0  0  0  0  0  0  0
   28.6160   29.8710   26.0650 O   0  0  0  0  0  0  0  0  0  0  0  0
   29.4640   30.6140   24.1150 N   0  0  0  0  0  0  0  0  0  0  0  0
   29.7170   30.3700   23.1710 H   0  0  0  0  0  0  0  0  0  0  0  0
   29.6760   31.9930   24.5500 C   0  0  0  0  0  0  0  0  0  0  0  0
   28.7170   32.4490   24.8050 H   0  0  0  0  0  0  0  0  0  0  0  0
   30.3120   32.0070   25.4370 H   0  0  0  0  0  0  0  0  0  0  0  0
   30.1510   32.5720   23.7570 H   0  0  0  0  0  0  0  0  0  0  0  0
   23.1230   21.2950   23.9340 H   0  0  0  0  0  0  0  0  0  0  0  0
   23.3750   22.0840   23.2270 C   0  0  0  0  0  0  0  0  0  0  0  0
   22.6410   22.1050   22.4230 H   0  0  0  0  0  0  0  0  0  0  0  0
   24.3670   21.9040   22.8170 H   0  0  0  0  0  0  0  0  0  0  0  0
   23.3650   23.4110   23.9490 C   0  0  0  0  0  0  0  0  0  0  0  0
   23.1120   23.4620   25.1450 O   0  0  0  0  0  0  0  0  0  0  0  0
   23.6500   24.4860   23.2190 N   0  0  0  0  0  0  0  0  0  0  0  0
   23.8390   24.3700   22.2340 H   0  0  0  0  0  0  0  0  0  0  0  0
   23.6960   25.8530   23.7380 C   0  0  1  0  0  0  0  0  0  0  0  0
   22.9090   25.9770   24.4840 H   0  0  0  0  0  0  0  0  0  0  0  0
   25.0520   26.0540   24.4290 C   0  0  0  0  0  0  0  0  0  0  0  0
   25.1360   25.3000   25.2130 H   0  0  0  0  0  0  0  0  0  0  0  0
   25.8470   25.8590   23.7090 H   0  0  0  0  0  0  0  0  0  0  0  0
   25.3620   27.6610   25.2090 S   0  0  0  0  0  0  0  0  0  0  0  0
   23.4490   26.8670   22.6070 C   0  0  0  0  0  0  0  0  0  0  0  0
   23.7980   26.6010   21.4560 O   0  0  0  0  0  0  0  0  0  0  0  0
   22.8440   28.0170   22.9310 N   0  0  0  0  0  0  0  0  0  0  0  0
   22.6200   28.1730   23.9010 H   0  0  0  0  0  0  0  0  0  0  0  0
   22.5450   29.0860   21.9790 C   0  0  0  0  0  0  0  0  0  0  0  0
   23.4640   29.6130   21.7170 H   0  0  0  0  0  0  0  0  0  0  0  0
   22.1130   28.6650   21.0680 H   0  0  0  0  0  0  0  0  0  0  0  0
   21.8380   29.7920   22.4150 H   0  0  0  0  0  0  0  0  0  0  0  0
  5  6  2  0  0  0  0
  5  7  1  0  0  0  0
  2  3  1  0  0  0  0
  2  4  1  0  0  0  0
  2  5  1  0  0  0  0
  1  2  1  0  0  0  0
 15 16  2  0  0  0  0
 15 17  1  0  0  0  0
 14 36  1  0  0  0  0
 11 12  1  0  0  0  0
 11 13  1  0  0  0  0
 11 14  1  0  0  0  0
  9 10  1  0  0  0  0
  9 11  1  0  0  0  0
  9 15  1  0  0  0  0
  7  8  1  0  0  0  0
  7  9  1  0  0  0  0
 19 20  1  0  0  0  0
 19 21  1  0  0  0  0
 19 22  1  0  0  0  0
 17 18  1  0  0  0  0
 17 19  1  0  0  0  0
 27 28  2  0  0  0  0
 27 29  1  0  0  0  0
 24 25  1  0  0  0  0
 24 26  1  0  0  0  0
 24 27  1  0  0  0  0
 23 24  1  0  0  0  0
 37 38  2  0  0  0  0
 37 39  1  0  0  0  0
 33 34  1  0  0  0  0
 33 35  1  0  0  0  0
 33 36  1  0  0  0  0
 31 32  1  0  0  0  0
 31 33  1  0  0  0  0
 31 37  1  0  0  0  0
 29 30  1  0  0  0  0
 29 31  1  0  0  0  0
 41 42  1  0  0  0  0
 41 43  1  0  0  0  0
 41 44  1  0  0  0  0
 39 40  1  0  0  0  0
 39 41  1  0  0  0  0
M  END
> <atom.dprop.PartialCharge>
0.112300 -0.366200 0.112300 0.112300 0.597200 -0.567900 -0.415700 0.271900 0.042900 0.076600 -0.079000 0.091000 0.091000 -0.108100 0.597300 -0.567900 -0.415700 0.271900 -0.149000 0.097600 0.097600 0.097600 0.112300 -0.366200 0.112300 0.112300 0.597200 -0.567900 -0.415700 0.271900 0.042900 0.076600 -0.079000 0.091000 0.091000 -0.108100 0.597300 -0.567900 -0.415700 0.271900 -0.149000 0.097600 0.097600 0.097600

$$$$
