default_name
  -OEChem-05102114353D

 28 27  0     1  0  0  0  0  0999 V2000
   26.0250   25.2360   24.6460 H   0  0  0  0  0  0  0  0  0  0  0  0
   26.0510   26.2170   24.1740 C   0  0  0  0  0  0  0  0  0  0  0  0
   25.3590   26.8860   24.6820 H   0  0  0  0  0  0  0  0  0  0  0  0
   25.7760   26.1240   23.1250 H   0  0  0  0  0  0  0  0  0  0  0  0
   27.4520   26.7730   24.2770 C   0  0  0  0  0  0  0  0  0  0  0  0
   28.3310   26.1310   24.8350 O   0  0  0  0  0  0  0  0  0  0  0  0
   27.6580   27.9730   23.7400 N   0  0  0  0  0  0  0  0  0  0  0  0
   26.8780   28.4580   23.3200 H   0  0  0  0  0  0  0  0  0  0  0  0
   28.9450   28.6720   23.7370 C   0  0  1  0  0  0  0  0  0  0  0  0
   29.4970   28.3910   24.6350 H   0  0  0  0  0  0  0  0  0  0  0  0
   29.7580   28.2220   22.5060 C   0  0  0  0  0  0  0  0  0  0  0  0
   29.9070   27.1430   22.5740 H   0  0  0  0  0  0  0  0  0  0  0  0
   29.1850   28.4290   21.6010 H   0  0  0  0  0  0  0  0  0  0  0  0
   31.1310   28.9050   22.3820 C   0  0  0  0  0  0  0  0  0  0  0  0
   31.0000   29.9660   22.1690 H   0  0  0  0  0  0  0  0  0  0  0  0
   31.6720   28.7940   23.3210 H   0  0  0  0  0  0  0  0  0  0  0  0
   31.9810   28.2970   21.2710 C   0  0  0  0  0  0  0  0  0  0  0  0
   32.3060   28.8710   20.2440 O   0  0  0  0  0  0  0  0  0  0  0  0
   32.3730   27.0250   21.4710 O   0  0  0  0  0  0  0  0  0  0  0  0
   32.8780   26.7920   20.6900 H   0  0  0  0  0  0  0  0  0  0  0  0
   28.7260   30.1930   23.7690 C   0  0  0  0  0  0  0  0  0  0  0  0
   27.7900   30.6930   23.1480 O   0  0  0  0  0  0  0  0  0  0  0  0
   29.5930   30.9240   24.4800 N   0  0  0  0  0  0  0  0  0  0  0  0
   30.3230   30.4410   24.9820 H   0  0  0  0  0  0  0  0  0  0  0  0
   29.5340   32.3800   24.5920 C   0  0  0  0  0  0  0  0  0  0  0  0
   28.5620   32.6810   24.9870 H   0  0  0  0  0  0  0  0  0  0  0  0
   30.3190   32.7410   25.2580 H   0  0  0  0  0  0  0  0  0  0  0  0
   29.6620   32.8310   23.6060 H   0  0  0  0  0  0  0  0  0  0  0  0
  5  6  2  0  0  0  0
  5  7  1  0  0  0  0
  2  3  1  0  0  0  0
  2  4  1  0  0  0  0
  2  5  1  0  0  0  0
  1  2  1  0  0  0  0
 21 22  2  0  0  0  0
 21 23  1  0  0  0  0
 19 20  1  0  0  0  0
 17 18  2  0  0  0  0
 17 19  1  0  0  0  0
 14 15  1  0  0  0  0
 14 16  1  0  0  0  0
 14 17  1  0  0  0  0
 11 12  1  0  0  0  0
 11 13  1  0  0  0  0
 11 14  1  0  0  0  0
  9 10  1  0  0  0  0
  9 11  1  0  0  0  0
  9 21  1  0  0  0  0
  7  8  1  0  0  0  0
  7  9  1  0  0  0  0
 25 26  1  0  0  0  0
 25 27  1  0  0  0  0
 25 28  1  0  0  0  0
 23 24  1  0  0  0  0
 23 25  1  0  0  0  0
M  END
> <atom.dprop.PartialCharge>
0.112300 -0.366200 0.112300 0.112300 0.597200 -0.567900 -0.415700 0.271900 0.014500 0.077900 -0.007100 0.025600 0.025600 -0.017400 0.043000 0.043000 0.680100 -0.583800 -0.651100 0.464100 0.597300 -0.567900 -0.415700 0.271900 -0.149000 0.097600 0.097600 0.097600

$$$$
