default_name
  -OEChem-05102114353D

 36 35  0     1  0  0  0  0  0999 V2000
   26.1380   25.2140   24.5830 H   0  0  0  0  0  0  0  0  0  0  0  0
   26.1240   26.2090   24.1390 C   0  0  0  0  0  0  0  0  0  0  0  0
   25.4130   26.8350   24.6760 H   0  0  0  0  0  0  0  0  0  0  0  0
   25.8370   26.1350   23.0920 H   0  0  0  0  0  0  0  0  0  0  0  0
   27.5060   26.8110   24.2430 C   0  0  0  0  0  0  0  0  0  0  0  0
   28.4180   26.1820   24.7650 O   0  0  0  0  0  0  0  0  0  0  0  0
   27.6710   28.0390   23.7420 N   0  0  0  0  0  0  0  0  0  0  0  0
   26.8710   28.4900   23.3200 H   0  0  0  0  0  0  0  0  0  0  0  0
   28.9420   28.7800   23.7680 C   0  0  1  0  0  0  0  0  0  0  0  0
   29.4760   28.5150   24.6820 H   0  0  0  0  0  0  0  0  0  0  0  0
   29.7870   28.3420   22.5550 C   0  0  0  0  0  0  0  0  0  0  0  0
   29.8880   27.2550   22.5750 H   0  0  0  0  0  0  0  0  0  0  0  0
   29.2630   28.6170   21.6370 H   0  0  0  0  0  0  0  0  0  0  0  0
   31.1940   28.9570   22.5360 C   0  0  0  0  0  0  0  0  0  0  0  0
   31.1210   30.0430   22.4630 H   0  0  0  0  0  0  0  0  0  0  0  0
   31.7160   28.6920   23.4560 H   0  0  0  0  0  0  0  0  0  0  0  0
   31.9810   28.4240   21.3310 C   0  0  0  0  0  0  0  0  0  0  0  0
   32.0420   27.3360   21.4080 H   0  0  0  0  0  0  0  0  0  0  0  0
   31.4380   28.6830   20.4190 H   0  0  0  0  0  0  0  0  0  0  0  0
   33.3440   28.9910   21.2720 N   0  3  0  0  0  0  0  0  0  0  0  0
   33.6000   29.6290   22.0060 H   0  0  0  0  0  0  0  0  0  0  0  0
   34.2560   28.7390   20.3480 C   0  0  0  0  0  0  0  0  0  0  0  0
   34.0290   27.9280   19.3530 N   0  0  0  0  0  0  0  0  0  0  0  0
   33.1320   27.4800   19.2890 H   0  0  0  0  0  0  0  0  0  0  0  0
   34.7320   27.7480   18.6600 H   0  0  0  0  0  0  0  0  0  0  0  0
   35.4280   29.3050   20.4060 N   0  0  0  0  0  0  0  0  0  0  0  0
   35.6500   29.9380   21.1550 H   0  0  0  0  0  0  0  0  0  0  0  0
   36.1170   29.1110   19.7030 H   0  0  0  0  0  0  0  0  0  0  0  0
   28.6830   30.2880   23.7680 C   0  0  0  0  0  0  0  0  0  0  0  0
   28.0080   30.7860   22.8750 O   0  0  0  0  0  0  0  0  0  0  0  0
   29.2500   31.0040   24.7440 N   0  0  0  0  0  0  0  0  0  0  0  0
   29.7580   30.5080   25.4580 H   0  0  0  0  0  0  0  0  0  0  0  0
   29.1010   32.4530   24.8890 C   0  0  0  0  0  0  0  0  0  0  0  0
   28.0550   32.6990   25.0840 H   0  0  0  0  0  0  0  0  0  0  0  0
   29.7120   32.8170   25.7160 H   0  0  0  0  0  0  0  0  0  0  0  0
   29.4070   32.9540   23.9680 H   0  0  0  0  0  0  0  0  0  0  0  0
  5  6  2  0  0  0  0
  5  7  1  0  0  0  0
  2  3  1  0  0  0  0
  2  4  1  0  0  0  0
  2  5  1  0  0  0  0
  1  2  1  0  0  0  0
 29 30  2  0  0  0  0
 29 31  1  0  0  0  0
 26 27  1  0  0  0  0
 26 28  1  0  0  0  0
 23 24  1  0  0  0  0
 23 25  1  0  0  0  0
 22 23  1  0  0  0  0
 22 26  1  0  0  0  0
 20 21  1  0  0  0  0
 20 22  2  0  0  0  0
 17 18  1  0  0  0  0
 17 19  1  0  0  0  0
 17 20  1  0  0  0  0
 14 15  1  0  0  0  0
 14 16  1  0  0  0  0
 14 17  1  0  0  0  0
 11 12  1  0  0  0  0
 11 13  1  0  0  0  0
 11 14  1  0  0  0  0
  9 10  1  0  0  0  0
  9 11  1  0  0  0  0
  9 29  1  0  0  0  0
  7  8  1  0  0  0  0
  7  9  1  0  0  0  0
 33 34  1  0  0  0  0
 33 35  1  0  0  0  0
 33 36  1  0  0  0  0
 31 32  1  0  0  0  0
 31 33  1  0  0  0  0
M  CHG  1  20   1
M  END
> <atom.dprop.PartialCharge>
0.112300 -0.366200 0.112300 0.112300 0.597200 -0.567900 -0.347900 0.274700 -0.263700 0.156000 -0.000700 0.032700 0.032700 0.039000 0.028500 0.028500 0.048600 0.068700 0.068700 -0.529500 0.345600 0.807600 -0.862700 0.447800 0.447800 -0.862700 0.447800 0.447800 0.734100 -0.589400 -0.415700 0.271900 -0.149000 0.097600 0.097600 0.097600

$$$$
