default_name
  -OEChem-05102114353D

 29 29  0     1  0  0  0  0  0999 V2000
   26.5470   25.1270   24.8960 H   0  0  0  0  0  0  0  0  0  0  0  0
   26.3840   26.1110   24.4590 C   0  0  0  0  0  0  0  0  0  0  0  0
   25.7220   26.6910   25.0990 H   0  0  0  0  0  0  0  0  0  0  0  0
   25.9440   26.0050   23.4690 H   0  0  0  0  0  0  0  0  0  0  0  0
   27.7110   26.8230   24.3400 C   0  0  0  0  0  0  0  0  0  0  0  0
   28.7420   26.2690   24.7000 O   0  0  0  0  0  0  0  0  0  0  0  0
   27.6830   28.0530   23.8320 N   0  0  0  0  0  0  0  0  0  0  0  0
   26.7890   28.4640   23.6000 H   0  0  0  0  0  0  0  0  0  0  0  0
   28.8550   28.9300   23.7090 C   0  0  1  0  0  0  0  0  0  0  0  0
   29.4780   28.7920   24.5950 H   0  0  0  0  0  0  0  0  0  0  0  0
   29.6800   28.5250   22.4720 C   0  0  0  0  0  0  0  0  0  0  0  0
   29.5540   27.4590   22.2770 H   0  0  0  0  0  0  0  0  0  0  0  0
   29.3190   29.0640   21.5950 H   0  0  0  0  0  0  0  0  0  0  0  0
   31.1580   28.7780   22.6440 C   0  0  0  0  0  0  0  0  0  0  0  0
   31.7950   30.0140   22.5260 N   0  0  0  0  0  0  0  0  0  0  0  0
   33.0880   29.7910   22.8030 C   0  0  0  0  0  0  0  0  0  0  0  0
   33.8580   30.5520   22.7870 H   0  0  0  0  0  0  0  0  0  0  0  0
   33.2860   28.4980   23.1100 N   0  0  0  0  0  0  0  0  0  0  0  0
   34.1710   28.0870   23.3740 H   0  0  0  0  0  0  0  0  0  0  0  0
   32.0780   27.8430   23.0190 C   0  0  0  0  0  0  0  0  0  0  0  0
   31.8750   26.7990   23.2220 H   0  0  0  0  0  0  0  0  0  0  0  0
   28.4270   30.4080   23.6730 C   0  0  0  0  0  0  0  0  0  0  0  0
   27.2320   30.7030   23.6540 O   0  0  0  0  0  0  0  0  0  0  0  0
   29.3920   31.3330   23.6730 N   0  0  0  0  0  0  0  0  0  0  0  0
   30.3460   31.0020   23.5820 H   0  0  0  0  0  0  0  0  0  0  0  0
   29.1640   32.7760   23.6550 C   0  0  0  0  0  0  0  0  0  0  0  0
   28.2750   33.0230   24.2410 H   0  0  0  0  0  0  0  0  0  0  0  0
   30.0260   33.2930   24.0790 H   0  0  0  0  0  0  0  0  0  0  0  0
   29.0120   33.1090   22.6270 H   0  0  0  0  0  0  0  0  0  0  0  0
  5  6  2  0  0  0  0
  5  7  1  0  0  0  0
  2  3  1  0  0  0  0
  2  4  1  0  0  0  0
  2  5  1  0  0  0  0
  1  2  1  0  0  0  0
 22 23  2  0  0  0  0
 22 24  1  0  0  0  0
 20 21  1  0  0  0  0
 18 19  1  0  0  0  0
 18 20  1  0  0  0  0
 16 17  1  0  0  0  0
 16 18  1  0  0  0  0
 15 16  2  0  0  0  0
 14 15  1  0  0  0  0
 14 20  2  0  0  0  0
 11 12  1  0  0  0  0
 11 13  1  0  0  0  0
 11 14  1  0  0  0  0
  9 10  1  0  0  0  0
  9 11  1  0  0  0  0
  9 22  1  0  0  0  0
  7  8  1  0  0  0  0
  7  9  1  0  0  0  0
 26 27  1  0  0  0  0
 26 28  1  0  0  0  0
 26 29  1  0  0  0  0
 24 25  1  0  0  0  0
 24 26  1  0  0  0  0
M  END
> <atom.dprop.PartialCharge>
0.112300 -0.366200 0.112300 0.112300 0.597200 -0.567900 -0.415700 0.271900 -0.058100 0.136000 -0.007400 0.036700 0.036700 0.186800 -0.543200 0.163500 0.143500 -0.279500 0.333900 -0.220700 0.186200 0.597300 -0.567900 -0.415700 0.271900 -0.149000 0.097600 0.097600 0.097600

$$$$
