default_name
  -OEChem-05102114353D

 22 21  0     1  0  0  0  0  0999 V2000
   25.9500   25.1790   24.5820 H   0  0  0  0  0  0  0  0  0  0  0  0
   25.9860   26.1760   24.1450 C   0  0  0  0  0  0  0  0  0  0  0  0
   25.3320   26.8430   24.7030 H   0  0  0  0  0  0  0  0  0  0  0  0
   25.6730   26.1310   23.1040 H   0  0  0  0  0  0  0  0  0  0  0  0
   27.4050   26.6910   24.2180 C   0  0  0  0  0  0  0  0  0  0  0  0
   28.2850   25.9990   24.7130 O   0  0  0  0  0  0  0  0  0  0  0  0
   27.6210   27.9090   23.7280 N   0  0  0  0  0  0  0  0  0  0  0  0
   26.8380   28.4350   23.3700 H   0  0  0  0  0  0  0  0  0  0  0  0
   28.9160   28.5890   23.7300 C   0  0  1  0  0  0  0  0  0  0  0  0
   29.4710   28.2880   24.6200 H   0  0  0  0  0  0  0  0  0  0  0  0
   29.7100   28.1530   22.4890 C   0  0  0  0  0  0  0  0  0  0  0  0
   29.1720   28.4400   21.5840 H   0  0  0  0  0  0  0  0  0  0  0  0
   30.6910   28.6270   22.4880 H   0  0  0  0  0  0  0  0  0  0  0  0
   29.8440   27.0700   22.4990 H   0  0  0  0  0  0  0  0  0  0  0  0
   28.7370   30.1190   23.7780 C   0  0  0  0  0  0  0  0  0  0  0  0
   27.6750   30.6340   23.4290 O   0  0  0  0  0  0  0  0  0  0  0  0
   29.7840   30.8410   24.1970 N   0  0  0  0  0  0  0  0  0  0  0  0
   30.6220   30.3480   24.4610 H   0  0  0  0  0  0  0  0  0  0  0  0
   29.7840   32.3000   24.2930 C   0  0  0  0  0  0  0  0  0  0  0  0
   28.9510   32.6280   24.9180 H   0  0  0  0  0  0  0  0  0  0  0  0
   30.7200   32.6520   24.7290 H   0  0  0  0  0  0  0  0  0  0  0  0
   29.6630   32.7340   23.2990 H   0  0  0  0  0  0  0  0  0  0  0  0
  5  6  2  0  0  0  0
  5  7  1  0  0  0  0
  2  3  1  0  0  0  0
  2  4  1  0  0  0  0
  2  5  1  0  0  0  0
  1  2  1  0  0  0  0
 15 16  2  0  0  0  0
 15 17  1  0  0  0  0
 11 12  1  0  0  0  0
 11 13  1  0  0  0  0
 11 14  1  0  0  0  0
  9 10  1  0  0  0  0
  9 11  1  0  0  0  0
  9 15  1  0  0  0  0
  7  8  1  0  0  0  0
  7  9  1  0  0  0  0
 19 20  1  0  0  0  0
 19 21  1  0  0  0  0
 19 22  1  0  0  0  0
 17 18  1  0  0  0  0
 17 19  1  0  0  0  0
M  END
> <atom.dprop.PartialCharge>
0.112300 -0.366200 0.112300 0.112300 0.597200 -0.567900 -0.415700 0.271900 0.033700 0.082300 -0.182500 0.060300 0.060300 0.060300 0.597300 -0.567900 -0.415700 0.271900 -0.149000 0.097600 0.097600 0.097600

$$$$
