default_name
  -OEChem-05102114353D

 30 30  0     1  0  0  0  0  0999 V2000
   26.0250   25.7930   25.2300 H   0  0  0  0  0  0  0  0  0  0  0  0
   26.1160   26.6200   24.5260 C   0  0  0  0  0  0  0  0  0  0  0  0
   25.4180   27.4070   24.8050 H   0  0  0  0  0  0  0  0  0  0  0  0
   25.8950   26.2590   23.5220 H   0  0  0  0  0  0  0  0  0  0  0  0
   27.5280   27.1570   24.5730 C   0  0  0  0  0  0  0  0  0  0  0  0
   28.3530   26.6670   25.3330 O   0  0  0  0  0  0  0  0  0  0  0  0
   27.8240   28.1630   23.7450 N   0  0  0  0  0  0  0  0  0  0  0  0
   27.0910   28.4990   23.1380 H   0  0  0  0  0  0  0  0  0  0  0  0
   29.1640   28.7650   23.6370 C   0  0  1  0  0  0  0  0  0  0  0  0
   29.6470   28.6980   24.6150 H   0  0  0  0  0  0  0  0  0  0  0  0
   30.0060   27.9200   22.6530 C   0  0  0  0  0  0  0  0  0  0  0  0
   30.0170   26.8850   23.0040 H   0  0  0  0  0  0  0  0  0  0  0  0
   29.5180   27.9220   21.6760 H   0  0  0  0  0  0  0  0  0  0  0  0
   31.4350   28.3840   22.4660 C   0  0  0  0  0  0  0  0  0  0  0  0
   31.8210   29.5340   21.8050 N   0  3  0  0  0  0  0  0  0  0  0  0
   31.1590   30.2200   21.4310 H   0  0  0  0  0  0  0  0  0  0  0  0
   33.1660   29.6140   21.8400 C   0  0  0  0  0  0  0  0  0  0  0  0
   33.7600   30.4190   21.4120 H   0  0  0  0  0  0  0  0  0  0  0  0
   33.6420   28.5390   22.5080 N   0  0  0  0  0  0  0  0  0  0  0  0
   34.6210   28.3360   22.6920 H   0  0  0  0  0  0  0  0  0  0  0  0
   32.5680   27.7560   22.9080 C   0  0  0  0  0  0  0  0  0  0  0  0
   32.6080   26.8240   23.4650 H   0  0  0  0  0  0  0  0  0  0  0  0
   29.0800   30.2630   23.2940 C   0  0  0  0  0  0  0  0  0  0  0  0
   29.3630   30.6640   22.1640 O   0  0  0  0  0  0  0  0  0  0  0  0
   28.7020   31.0810   24.2840 N   0  0  0  0  0  0  0  0  0  0  0  0
   28.4790   30.6620   25.1740 H   0  0  0  0  0  0  0  0  0  0  0  0
   28.5890   32.5390   24.1800 C   0  0  0  0  0  0  0  0  0  0  0  0
   27.5430   32.8260   24.0550 H   0  0  0  0  0  0  0  0  0  0  0  0
   28.9720   33.0080   25.0880 H   0  0  0  0  0  0  0  0  0  0  0  0
   29.1600   32.9140   23.3280 H   0  0  0  0  0  0  0  0  0  0  0  0
  5  6  2  0  0  0  0
  5  7  1  0  0  0  0
  2  3  1  0  0  0  0
  2  4  1  0  0  0  0
  2  5  1  0  0  0  0
  1  2  1  0  0  0  0
 23 24  2  0  0  0  0
 23 25  1  0  0  0  0
 21 22  1  0  0  0  0
 19 20  1  0  0  0  0
 19 21  1  0  0  0  0
 17 18  1  0  0  0  0
 17 19  1  0  0  0  0
 15 16  1  0  0  0  0
 15 17  2  0  0  0  0
 14 15  1  0  0  0  0
 14 21  2  0  0  0  0
 11 12  1  0  0  0  0
 11 13  1  0  0  0  0
 11 14  1  0  0  0  0
  9 10  1  0  0  0  0
  9 11  1  0  0  0  0
  9 23  1  0  0  0  0
  7  8  1  0  0  0  0
  7  9  1  0  0  0  0
 27 28  1  0  0  0  0
 27 29  1  0  0  0  0
 27 30  1  0  0  0  0
 25 26  1  0  0  0  0
 25 27  1  0  0  0  0
M  CHG  1  15   1
M  END
> <atom.dprop.PartialCharge>
0.112300 -0.366200 0.112300 0.112300 0.597200 -0.567900 -0.347900 0.274700 -0.135400 0.121200 -0.041400 0.081000 0.081000 -0.001200 -0.151300 0.386600 -0.017000 0.268100 -0.171800 0.391100 -0.114100 0.231700 0.734100 -0.589400 -0.415700 0.271900 -0.149000 0.097600 0.097600 0.097600

$$$$
