default_name
  -OEChem-05102114353D

 18 17  0     1  0  0  0  0  0999 V2000
   27.3850   25.5120   24.0570 N   0  3  0  0  0  0  0  0  0  0  0  0
   27.7690   24.9520   23.3070 H   0  0  0  0  0  0  0  0  0  0  0  0
   26.3800   25.5640   23.9750 H   0  0  0  0  0  0  0  0  0  0  0  0
   27.6400   25.0640   24.9280 H   0  0  0  0  0  0  0  0  0  0  0  0
   27.9880   26.8650   24.0200 C   0  0  1  0  0  0  0  0  0  0  0  0
   27.7680   27.3250   23.0560 H   0  0  0  0  0  0  0  0  0  0  0  0
   27.4010   27.7490   25.1300 C   0  0  0  0  0  0  0  0  0  0  0  0
   27.6330   27.3280   26.1100 H   0  0  0  0  0  0  0  0  0  0  0  0
   27.8220   28.7540   25.0680 H   0  0  0  0  0  0  0  0  0  0  0  0
   26.3190   27.8190   25.0160 H   0  0  0  0  0  0  0  0  0  0  0  0
   29.5080   26.7370   24.1410 C   0  0  0  0  0  0  0  0  0  0  0  0
   29.9660   25.6360   24.4240 O   0  0  0  0  0  0  0  0  0  0  0  0
   30.2700   27.8140   23.9160 N   0  0  0  0  0  0  0  0  0  0  0  0
   29.8340   28.6970   23.6910 H   0  0  0  0  0  0  0  0  0  0  0  0
   31.7320   27.8010   24.0000 C   0  0  0  0  0  0  0  0  0  0  0  0
   32.1380   26.9780   23.4070 H   0  0  0  0  0  0  0  0  0  0  0  0
   32.1430   28.7410   23.6240 H   0  0  0  0  0  0  0  0  0  0  0  0
   32.0470   27.6690   25.0370 H   0  0  0  0  0  0  0  0  0  0  0  0
 11 12  2  0  0  0  0
 11 13  1  0  0  0  0
  7  8  1  0  0  0  0
  7  9  1  0  0  0  0
  7 10  1  0  0  0  0
  5  6  1  0  0  0  0
  5  7  1  0  0  0  0
  5 11  1  0  0  0  0
  1  2  1  0  0  0  0
  1  3  1  0  0  0  0
  1  4  1  0  0  0  0
  1  5  1  0  0  0  0
 15 16  1  0  0  0  0
 15 17  1  0  0  0  0
 15 18  1  0  0  0  0
 13 14  1  0  0  0  0
 13 15  1  0  0  0  0
M  CHG  1   1   1
M  END
> <atom.dprop.PartialCharge>
0.000000 0.000000 0.000000 0.000000 0.000000 0.000000 0.000000 0.000000 0.000000 0.000000 0.000000 0.000000 -0.415700 0.271900 -0.149000 0.097600 0.097600 0.097600

$$$$
