@<TRIPOS>MOLECULE
OCT
  184   204     1     0     0
SMALL
No Charge or Current Charge


@<TRIPOS>ATOM
      1 C1           1.9780    -2.9130     2.5560 C.ar       1 OCT       0.007966
      2 C2           3.7890    -0.8910     1.7980 C.ar       1 OCT       0.023462
      3 C3           2.0950    -1.7370     3.3190 C.ar       1 OCT      -0.215113
      4 C4           2.8090    -3.1130     1.4400 C.ar       1 OCT       0.023462
      5 C5           3.7500    -2.1260     1.0940 C.ar       1 OCT      -0.124092
      6 C6           2.8730    -0.6510     2.8620 C.ar       1 OCT       0.007966
      7 O1           4.5480     0.2040     1.3130 O.3        1 OCT      -0.249831
      8 C7           2.9840     0.5840     3.7170 C.3        1 OCT       0.014967
      9 C8           3.9320     1.3630     0.6550 C.3        1 OCT       0.068147
     10 O2           3.6580     2.3950     1.6720 O.3        1 OCT      -0.249831
     11 C9           2.3640     2.5270     2.1880 C.ar       1 OCT       0.023462
     12 C10          2.0150     1.6640     3.2190 C.ar       1 OCT       0.007966
     13 C11          0.7110     1.8220     3.7590 C.ar       1 OCT      -0.215113
     14 C12          1.5080     3.4420     1.6300 C.ar       1 OCT      -0.124092
     15 C13         -0.1860     2.7330     3.1850 C.ar       1 OCT       0.007966
     16 C14          0.2210     3.5300     2.1100 C.ar       1 OCT       0.023462
     17 O3          -0.6470     4.3030     1.4010 O.3        1 OCT      -0.249831
     18 C15         -1.6530     2.7550     3.6810 C.3        1 OCT       0.014967
     19 C16         -2.5740     1.8700     2.8770 C.ar       1 OCT       0.007966
     20 C17         -3.1320     2.4120     1.6520 C.ar       1 OCT       0.023462
     21 C18         -1.5380     3.6600     0.4250 C.3        1 OCT       0.068147
     22 O4          -2.7830     3.6460     1.1110 O.3        1 OCT      -0.249831
     23 O5           2.5440    -4.1280     0.4970 O.3        1 OCT      -0.249831
     24 C19          0.8190    -3.8400     2.8300 C.3        1 OCT       0.014967
     25 C20         -0.4320    -3.4440     2.0490 C.ar       1 OCT       0.007966
     26 O6           0.2820    -4.7530    -0.0200 O.3        1 OCT      -0.249831
     27 C21         -0.6540    -3.9910     0.7700 C.ar       1 OCT       0.023462
     28 C22         -3.9750     1.6730     0.8700 C.ar       1 OCT      -0.124092
     29 C23         -4.2640     0.3670     1.1370 C.ar       1 OCT       0.023462
     30 C24         -1.8020    -3.7270     0.0330 C.ar       1 OCT      -0.124092
     31 C25         -2.7750    -2.9180     0.5540 C.ar       1 OCT       0.023462
     32 O7          -4.8390    -0.4100     0.1310 O.3        1 OCT      -0.249831
     33 O8          -3.8440    -2.5740    -0.2240 O.3        1 OCT      -0.249831
     34 C26         -3.9300    -1.1640    -0.7330 C.3        1 OCT       0.068147
     35 C27         -1.4680    -2.7260     2.6070 C.ar       1 OCT      -0.215113
     36 C28         -2.6720    -2.4640     1.9030 C.ar       1 OCT       0.007966
     37 C29         -2.9270     0.5100     3.1980 C.ar       1 OCT      -0.215113
     38 C30         -3.9200    -1.7400     2.6170 C.3        1 OCT       0.014967
     39 C31         -3.7670    -0.2670     2.3280 C.ar       1 OCT       0.007966
     40 C32          1.4480    -3.9480    -0.4130 C.3        1 OCT       0.068147
     41 C33         -1.7230     2.5680     5.1830 C.3        1 OCT       0.142268
     42 C34         -3.1160     2.7320     5.7950 C.3        1 OCT      -0.082342
     43 C35         -3.0940     2.4680     7.3220 C.2        1 OCT       0.883098
     44 O9          -2.1470     1.9470     7.8190 O.co2      1 OCT      -0.850868
     45 C36          2.9710     0.3330     5.2440 C.3        1 OCT       0.142268
     46 C37          3.4740     1.5040     6.0680 C.3        1 OCT      -0.082342
     47 C38          4.9650     1.5110     5.9710 C.2        1 OCT       0.883098
     48 O10          5.6550     0.8410     6.7490 O.co2      1 OCT      -0.850868
     49 C39          0.6190    -4.2620     4.3570 C.3        1 OCT       0.142268
     50 C40         -0.4420    -5.3440     4.4880 C.3        1 OCT      -0.082342
     51 C41          0.2540    -6.6130     4.0330 C.2        1 OCT       0.883098
     52 O11          1.0480    -7.1760     4.7900 O.co2      1 OCT      -0.850868
     53 C42         -3.9730    -2.2770     4.1800 C.3        1 OCT       0.142268
     54 C43         -5.1780    -1.5800     4.8560 C.3        1 OCT      -0.082342
     55 C44         -5.1500    -1.9220     6.3420 C.2        1 OCT       0.883098
     56 O12         -4.2720    -1.6220     7.0980 O.co2      1 OCT      -0.850868
     57 C45          4.8530     1.8910    -0.4090 C.ar       1 OCT      -0.005566
     58 C46          6.4190     2.7220    -2.5260 C.ar       1 OCT      -0.283538
     59 C47          4.8060     3.1880    -0.8380 C.ar       1 OCT      -0.137849
     60 C48          5.7010     1.0210    -1.0690 C.ar       1 OCT      -0.137849
     61 C49          6.5160     1.4180    -2.1280 C.ar       1 OCT       0.230002
     62 C50          5.5390     3.5760    -1.8830 C.ar       1 OCT       0.230002
     63 C51          1.9240    -4.1690    -1.8430 C.ar       1 OCT      -0.005566
     64 C52          2.5740    -4.1720    -4.5420 C.ar       1 OCT      -0.283538
     65 C53          1.0450    -4.6830    -2.7060 C.ar       1 OCT      -0.137849
     66 C54          3.1640    -3.6710    -2.3470 C.ar       1 OCT      -0.137849
     67 C55          3.5120    -3.7000    -3.6730 C.ar       1 OCT       0.230002
     68 C56          1.3590    -4.6800    -4.0870 C.ar       1 OCT       0.230002
     69 C57         -4.3640    -1.2630    -2.1710 C.ar       1 OCT      -0.005566
     70 C58         -5.1030    -1.2900    -4.8080 C.ar       1 OCT      -0.283538
     71 C59         -5.1920    -0.2470    -2.6580 C.ar       1 OCT      -0.137849
     72 C60         -3.9340    -2.3460    -3.0260 C.ar       1 OCT      -0.137849
     73 C61         -4.2790    -2.3050    -4.3980 C.ar       1 OCT       0.230002
     74 C62         -5.5090    -0.2170    -4.0010 C.ar       1 OCT       0.230002
     75 C63         -1.5850     4.4050    -0.9270 C.ar       1 OCT      -0.005566
     76 C64         -1.5140     5.2850    -3.5240 C.ar       1 OCT      -0.283538
     77 C65         -2.7380     4.3570    -1.7190 C.ar       1 OCT      -0.137849
     78 C66         -0.3570     4.8830    -1.4230 C.ar       1 OCT      -0.137849
     79 C67         -0.3650     5.2850    -2.7420 C.ar       1 OCT       0.230002
     80 C68         -2.6800     4.7550    -2.9980 C.ar       1 OCT       0.230002
     81 O13          4.6560    -3.1320    -4.2310 O.3        1 OCT      -0.291846
     82 O14         -3.9210    -3.3160    -5.2690 O.3        1 OCT      -0.291846
     83 O15         -6.1530     0.7740    -4.5970 O.3        1 OCT      -0.291846
     84 O16          7.3710     0.5580    -2.7490 O.3        1 OCT      -0.291846
     85 O17          5.5640     4.8870    -2.3690 O.3        1 OCT      -0.291846
     86 O18         -3.8000     4.8130    -3.8840 O.3        1 OCT      -0.291846
     87 O19          0.8470     5.5530    -3.3740 O.3        1 OCT      -0.291846
     88 C69         -3.1250    -4.3820    -4.8430 C.ar       1 OCT       0.039764
     89 C70         -1.3880    -6.3310    -3.9960 C.ar       1 OCT      -0.099238
     90 C71         -1.7660    -4.2420    -5.0990 C.ar       1 OCT      -0.122366
     91 C72         -3.6200    -5.4880    -4.0900 C.ar       1 OCT      -0.099238
     92 C73         -2.7470    -6.4710    -3.6320 C.ar       1 OCT      -0.155820
     93 C74         -0.8840    -5.2010    -4.6980 C.ar       1 OCT       0.039764
     94 O20          0.4360    -5.0770    -4.9660 O.3        1 OCT      -0.291846
     95 C75          7.0140    -0.7940    -2.8120 C.ar       1 OCT       0.039764
     96 C76          6.6030    -3.4800    -2.7760 C.ar       1 OCT      -0.099238
     97 C77          7.8680    -1.6190    -2.0560 C.ar       1 OCT      -0.099238
     98 C78          5.8570    -1.2990    -3.4370 C.ar       1 OCT      -0.122366
     99 C79          5.6910    -2.6750    -3.4480 C.ar       1 OCT       0.039764
    100 C80          7.6440    -2.9510    -2.0130 C.ar       1 OCT      -0.155820
    101 C81         -6.1080     2.0390    -4.1700 C.ar       1 OCT       0.039764
    102 C82         -6.0420     4.5660    -3.0460 C.ar       1 OCT      -0.099238
    103 C83         -7.2560     2.5070    -3.5050 C.ar       1 OCT      -0.099238
    104 C84         -4.9680     2.7640    -4.2470 C.ar       1 OCT      -0.122366
    105 C85         -4.9020     4.0350    -3.6650 C.ar       1 OCT       0.039764
    106 C86         -7.2160     3.7920    -2.9240 C.ar       1 OCT      -0.155820
    107 C87         -8.3420     4.2640    -2.0140 C.2        1 OCT       0.879713
    108 O21         -9.2730     3.5770    -1.6770 O.co2      1 OCT      -0.810925
    109 C88          3.5430     9.3010    -1.4370 C.2        1 OCT       0.879713
    110 O22          4.6040     9.6750    -1.0440 O.co2      1 OCT      -0.810925
    111 C89          8.5220    -3.8700    -1.0650 C.2        1 OCT       0.879713
    112 O23          8.5050    -5.0240    -1.2770 O.co2      1 OCT      -0.810925
    113 O24         -4.0100     2.7470     7.9930 O.co2      1 OCT      -0.850868
    114 O25         -6.1860    -2.4440     6.7280 O.co2      1 OCT      -0.850868
    115 O26          0.0950    -6.9830     2.9000 O.co2      1 OCT      -0.850868
    116 C90         -3.1550    -7.5970    -2.7690 C.2        1 OCT       0.879713
    117 O27         -2.3410    -8.3000    -2.1910 O.co2      1 OCT      -0.810925
    118 O28          2.5090     9.9980    -1.3550 O.co2      1 OCT      -0.810925
    119 O29         -8.3240     5.4290    -1.6400 O.co2      1 OCT      -0.810925
    120 O30         -4.3750    -7.7630    -2.5820 O.co2      1 OCT      -0.810925
    121 O31          9.0540    -3.4610    -0.0610 O.co2      1 OCT      -0.810925
    122 O32          5.5220     2.2790     5.1950 O.co2      1 OCT      -0.850868
    123 C91          4.4110     5.6700    -2.4190 C.ar       1 OCT       0.039764
    124 C92          2.1750     7.2800    -2.2470 C.ar       1 OCT      -0.099238
    125 C93          3.1540     5.1300    -2.8380 C.ar       1 OCT      -0.122366
    126 C94          4.5390     7.0130    -1.9880 C.ar       1 OCT      -0.099238
    127 C95          3.3890     7.8860    -1.8580 C.ar       1 OCT      -0.155820
    128 C96          2.0370     5.9900    -2.7670 C.ar       1 OCT       0.039764
    129 H1           1.3140    -1.5380     4.0470 H          1 OCT       0.143125
    130 H2           4.3950    -2.2610     0.2290 H          1 OCT       0.194665
    131 H3           3.9410     1.0910     3.5770 H          1 OCT       0.122328
    132 H4           2.9520     1.0690     0.2500 H          1 OCT       0.144089
    133 H5           0.4670     1.0980     4.5330 H          1 OCT       0.143125
    134 H6           1.8430     4.0220     0.7740 H          1 OCT       0.194665
    135 H7          -1.9970     3.7840     3.5520 H          1 OCT       0.122328
    136 H8          -1.2860     2.6080     0.2230 H          1 OCT       0.144089
    137 H9           1.1220    -4.7900     2.3850 H          1 OCT       0.122328
    138 H10         -4.3700     2.1250    -0.0360 H          1 OCT       0.194665
    139 H11         -1.8910    -4.1970    -0.9440 H          1 OCT       0.194665
    140 H12         -2.8730    -0.8670    -0.6830 H          1 OCT       0.144089
    141 H13         -1.5000    -2.4000     3.6440 H          1 OCT       0.143125
    142 H14         -2.5320     0.0400     4.0950 H          1 OCT       0.143125
    143 H15         -4.8830    -1.9290     2.1380 H          1 OCT       0.122328
    144 H16          1.0410    -2.9290    -0.3430 H          1 OCT       0.144089
    145 H17         -1.2640     1.6140     5.4480 H          1 OCT      -0.006278
    146 H18         -1.0850     3.3470     5.6060 H          1 OCT      -0.006278
    147 H19         -3.4140     3.7700     5.6300 H          1 OCT      -0.050788
    148 H20         -3.7740     1.9840     5.3470 H          1 OCT      -0.050788
    149 H21          3.4060    -0.6560     5.4020 H          1 OCT      -0.006278
    150 H22          1.9960     0.0970     5.6760 H          1 OCT      -0.006278
    151 H23          3.0110     2.4500     5.7790 H          1 OCT      -0.050788
    152 H24          3.2700     1.1450     7.0800 H          1 OCT      -0.050788
    153 H25          1.5540    -4.5780     4.8230 H          1 OCT      -0.006278
    154 H26          0.2700    -3.3680     4.8770 H          1 OCT      -0.006278
    155 H27         -0.6790    -5.3400     5.5540 H          1 OCT      -0.050788
    156 H28         -1.3680    -5.2640     3.9150 H          1 OCT      -0.050788
    157 H29         -4.1990    -3.3400     4.2770 H          1 OCT      -0.006278
    158 H30         -3.1350    -2.0140     4.8300 H          1 OCT      -0.006278
    159 H31         -5.0920    -0.4960     4.7620 H          1 OCT      -0.050788
    160 H32         -6.1050    -1.8690     4.3570 H          1 OCT      -0.050788
    161 H33          6.9260     3.1600    -3.3810 H          1 OCT       0.112507
    162 H34          4.0220     3.8410    -0.4650 H          1 OCT       0.144014
    163 H35          5.8180     0.0340    -0.6280 H          1 OCT       0.144014
    164 H36          2.7470    -4.1360    -5.6140 H          1 OCT       0.112507
    165 H37          0.0270    -4.9510    -2.4310 H          1 OCT       0.144014
    166 H38          3.8240    -3.2270    -1.6060 H          1 OCT       0.144014
    167 H39         -5.3290    -1.2620    -5.8720 H          1 OCT       0.112507
    168 H40         -5.4360     0.6030    -2.0260 H          1 OCT       0.144014
    169 H41         -3.2850    -3.1120    -2.6070 H          1 OCT       0.144014
    170 H42         -1.5800     5.8250    -4.4650 H          1 OCT       0.112507
    171 H43         -3.6250     3.8900    -1.2980 H          1 OCT       0.144014
    172 H44          0.5490     4.8370    -0.8240 H          1 OCT       0.144014
    173 H45         -0.6830    -7.0780    -3.6390 H          1 OCT       0.127588
    174 H46         -1.4480    -3.3280    -5.5950 H          1 OCT       0.133583
    175 H47         -4.6980    -5.5820    -3.9820 H          1 OCT       0.127588
    176 H48          6.2860    -4.5190    -2.7310 H          1 OCT       0.127588
    177 H49          8.6710    -1.1640    -1.4820 H          1 OCT       0.127588
    178 H50          5.0750    -0.6430    -3.8120 H          1 OCT       0.133583
    179 H51         -6.1300     5.5770    -2.6560 H          1 OCT       0.127588
    180 H52         -8.1780     1.9330    -3.5290 H          1 OCT       0.127588
    181 H53         -4.1080     2.2910    -4.7150 H          1 OCT       0.133583
    182 H54          1.2730     7.8750    -2.3700 H          1 OCT       0.127588
    183 H55          3.0630     4.0900    -3.1410 H          1 OCT       0.133583
    184 H56          5.4990     7.4650    -1.7500 H          1 OCT       0.127588
@<TRIPOS>BOND
     1     1     3 ar  
     2     1     4 ar  
     3     1    24 1   
     4     2     5 ar  
     5     2     6 ar  
     6     2     7 1   
     7     3     6 ar  
     8     3   129 1   
     9     4     5 ar  
    10     4    23 1   
    11     5   130 1   
    12     6     8 1   
    13     7     9 1   
    14     8    12 1   
    15     8    45 1   
    16     8   131 1   
    17     9    10 1   
    18     9    57 1   
    19     9   132 1   
    20    10    11 1   
    21    11    12 ar  
    22    11    14 ar  
    23    12    13 ar  
    24    13    15 ar  
    25    13   133 1   
    26    14    16 ar  
    27    14   134 1   
    28    15    16 ar  
    29    15    18 1   
    30    16    17 1   
    31    17    21 1   
    32    18    19 1   
    33    18    41 1   
    34    18   135 1   
    35    19    20 ar  
    36    19    37 ar  
    37    20    22 1   
    38    20    28 ar  
    39    21    22 1   
    40    21    75 1   
    41    21   136 1   
    42    23    40 1   
    43    24    25 1   
    44    24    49 1   
    45    24   137 1   
    46    25    27 ar  
    47    25    35 ar  
    48    26    27 1   
    49    26    40 1   
    50    27    30 ar  
    51    28    29 ar  
    52    28   138 1   
    53    29    32 1   
    54    29    39 ar  
    55    30    31 ar  
    56    30   139 1   
    57    31    33 1   
    58    31    36 ar  
    59    32    34 1   
    60    33    34 1   
    61    34    69 1   
    62    34   140 1   
    63    35    36 ar  
    64    35   141 1   
    65    36    38 1   
    66    37    39 ar  
    67    37   142 1   
    68    38    39 1   
    69    38    53 1   
    70    38   143 1   
    71    40    63 1   
    72    40   144 1   
    73    41    42 1   
    74    41   145 1   
    75    41   146 1   
    76    42    43 1   
    77    42   147 1   
    78    42   148 1   
    79    43    44 1   
    80    43   113 1   
    81    45    46 1   
    82    45   149 1   
    83    45   150 1   
    84    46    47 1   
    85    46   151 1   
    86    46   152 1   
    87    47    48 1   
    88    47   122 1   
    89    49    50 1   
    90    49   153 1   
    91    49   154 1   
    92    50    51 1   
    93    50   155 1   
    94    50   156 1   
    95    51    52 1   
    96    51   115 1   
    97    53    54 1   
    98    53   157 1   
    99    53   158 1   
   100    54    55 1   
   101    54   159 1   
   102    54   160 1   
   103    55    56 1   
   104    55   114 1   
   105    57    59 ar  
   106    57    60 ar  
   107    58    61 ar  
   108    58    62 ar  
   109    58   161 1   
   110    59    62 ar  
   111    59   162 1   
   112    60    61 ar  
   113    60   163 1   
   114    61    84 1   
   115    62    85 1   
   116    63    65 ar  
   117    63    66 ar  
   118    64    67 ar  
   119    64    68 ar  
   120    64   164 1   
   121    65    68 ar  
   122    65   165 1   
   123    66    67 ar  
   124    66   166 1   
   125    67    81 1   
   126    68    94 1   
   127    69    71 ar  
   128    69    72 ar  
   129    70    73 ar  
   130    70    74 ar  
   131    70   167 1   
   132    71    74 ar  
   133    71   168 1   
   134    72    73 ar  
   135    72   169 1   
   136    73    82 1   
   137    74    83 1   
   138    75    77 ar  
   139    75    78 ar  
   140    76    79 ar  
   141    76    80 ar  
   142    76   170 1   
   143    77    80 ar  
   144    77   171 1   
   145    78    79 ar  
   146    78   172 1   
   147    79    87 1   
   148    80    86 1   
   149    81    99 1   
   150    82    88 1   
   151    83   101 1   
   152    84    95 1   
   153    85   123 1   
   154    86   105 1   
   155    87   128 1   
   156    88    90 ar  
   157    88    91 ar  
   158    89    92 ar  
   159    89    93 ar  
   160    89   173 1   
   161    90    93 ar  
   162    90   174 1   
   163    91    92 ar  
   164    91   175 1   
   165    92   116 1   
   166    93    94 1   
   167    95    97 ar  
   168    95    98 ar  
   169    96    99 ar  
   170    96   100 ar  
   171    96   176 1   
   172    97   100 ar  
   173    97   177 1   
   174    98    99 ar  
   175    98   178 1   
   176   100   111 1   
   177   101   103 ar  
   178   101   104 ar  
   179   102   105 ar  
   180   102   106 ar  
   181   102   179 1   
   182   103   106 ar  
   183   103   180 1   
   184   104   105 ar  
   185   104   181 1   
   186   106   107 1   
   187   107   108 1   
   188   107   119 1   
   189   109   110 1   
   190   109   118 1   
   191   109   127 1   
   192   111   112 1   
   193   111   121 1   
   194   116   117 1   
   195   116   120 1   
   196   123   125 ar  
   197   123   126 ar  
   198   124   127 ar  
   199   124   128 ar  
   200   124   182 1   
   201   125   128 ar  
   202   125   183 1   
   203   126   127 ar  
   204   126   184 1   
@<TRIPOS>SUBSTRUCTURE
     1 OCT         1 TEMP              0 ****  ****    0 ROOT
